     303
 i =       46, E =     -8896.8885052012
  W         7.8901139363       24.3025236005        1.8106658866
  S         9.4676542898       25.8758196925        0.8990513551
  S         9.4675417238       22.7283220196        0.9003714777
  W        11.0450237814       24.3023760967        1.8105591807
  S        12.6227435532       25.8754324635        0.8989693719
  S        12.6223187778       22.7279271700        0.9003012161
  W        14.1999672652       24.3018657050        1.8104796382
  S        15.7775822040       25.8751454223        0.8991242166
  S        15.7774511684       22.7276353957        0.9001126740
  W        17.3549046627       24.3016854887        1.8105118073
  S        18.9324286060       25.8753366796        0.8995082441
  S        18.9324141179       22.7278381704        0.8997389721
  W        20.5097382639       24.3016444546        1.8106146556
  S        22.0874191403       25.8753030514        0.8998869649
  S        22.0869545747       22.7278157086        0.8994372303
  W        23.6645213092       24.3011095681        1.8106488905
  S        25.2423419332       25.8747013961        0.9000659659
  S        25.2416714250       22.7272305620        0.8993949227
  W        26.8193129079       24.3003730964        1.8108002969
  S        28.3969252506       25.8740454523        0.9000524047
  S        28.3966651773       22.7265901312        0.8997154547
  W        29.9741410482       24.3001334400        1.8109037667
  S        31.5512985481       25.8741049448        0.8998243153
  S        31.5519043191       22.7266416328        0.9000615521
  W        33.1289713211       24.3008584197        1.8109179176
  S        34.7059233585       25.8749692278        0.8995668104
  S        34.7068912900       22.7274954667        0.9002363624
  W        36.2837657022       24.3019603805        1.8108455244
  S        37.8609422447       25.8757095203        0.8992681098
  S        37.8614466653       22.7282206912        0.9003290291
  W         6.3125034824       24.3032661769        4.5434761476
  S         7.8896520425       25.8770296110        3.6318114258
  S         7.8901355440       22.7295452893        3.6329241685
  W         9.4673271273       24.3037987777        4.5432070166
  S        11.0449309957       25.8770164813        3.6315230094
  S        11.0446457322       22.7295135281        3.6328902267
  W        12.6222446904       24.3034713111        4.5430397481
  S        14.2000102600       25.8764676440        3.6313910548
  S        14.1994875738       22.7289540582        3.6327927560
  W        15.7771564670       24.3028814678        4.5430212120
  S        17.3549573957       25.8760077448        3.6316624525
  S        17.3544619485       22.7285046564        3.6326579855
  W        18.9320321350       24.3023129597        4.5431929725
  S        20.5099430365       25.8755230457        3.6321807834
  S        20.5091604930       22.7280356742        3.6324757404
  W        22.0868778555       24.3014286697        4.5433256158
  S        23.6648322792       25.8746429935        3.6324731147
  S        23.6638773087       22.7271810249        3.6322905072
  W        25.2416395689       24.3003631768        4.5434943505
  S        26.8193536451       25.8738410890        3.6327063209
  S        26.8188938438       22.7264036106        3.6324478802
  W        28.3964638723       24.2998737430        4.5436228584
  S        29.9737161009       25.8737880104        3.6326869823
  S        29.9742079493       22.7263613145        3.6326997103
  W        31.5513341601       24.3004524995        4.5436878098
  S        33.1281632582       25.8747755627        3.6325450674
  S        33.1294488554       22.7273331285        3.6328686279
  W        34.7061786777       24.3018868658        4.5436511651
  S        36.2829789513       25.8761807346        3.6322685905
  S        36.2842183969       22.7287112712        3.6329516639
  W         4.7349015069       24.3028390959        7.2763354982
  S         6.3116712895       25.8772789699        6.3650650947
  S         6.3129427730       22.7298052658        6.3653892099
  W         7.8897111814       24.3042436519        7.2760847379
  S         9.4668782228       25.8781029664        6.3645281480
  S         9.4673072152       22.7306174322        6.3652752058
  W        11.0445611719       24.3047184185        7.2757051881
  S        12.6221575454       25.8780314072        6.3641050219
  S        12.6219257483       22.7305338585        6.3652892752
  W        14.1994652367       24.3044996017        7.2756230689
  S        15.7772738010       25.8775003113        6.3640466184
  S        15.7765881949       22.7299603427        6.3653120442
  W        17.3542314989       24.3037491791        7.2757470201
  S        18.9323285603       25.8766492168        6.3644503348
  S        18.9312852885       22.7291635651        6.3653391843
  W        20.5091535186       24.3025800353        7.2759235976
  S        22.0873643502       25.8754522707        6.3648332546
  S        22.0860953197       22.7279937132        6.3653097291
  W        23.6639805010       24.3011830639        7.2762314857
  S        25.2419672701       25.8741739125        6.3651444679
  S        25.2409541612       22.7267330924        6.3653967781
  W        26.8187643998       24.3000586816        7.2763451974
  S        28.3962765943       25.8736044835        6.3653104259
  S        28.3962655141       22.7261790185        6.3654719295
  W        29.9736312043       24.3000520179        7.2763928374
  S        31.5506476590       25.8742089579        6.3653846219
  S        31.5516693057       22.7267766943        6.3655262388
  W        33.1285303335       24.3011680011        7.2764240375
  S        34.7052398832       25.8757009329        6.3653677432
  S        34.7067708931       22.7282518874        6.3655028351
  W         3.1571914035       24.3018353910       10.0090802800
  S         4.7338991130       25.8764779886        9.0981601874
  S         4.7354677281       22.7290067867        9.0980044215
  W         6.3120561797       24.3035277244       10.0089789694
  S         7.8889162426       25.8780128831        9.0978949023
  S         7.8900386267       22.7305250824        9.0977825536
  W         9.4669052798       24.3047558865       10.0086365249
  S        11.0440425606       25.8787673172        9.0972293328
  S        11.0444894048       22.7312789736        9.0975239082
  W        12.6215732278       24.3052806409       10.0083953685
  S        14.1992697175       25.8788046973        9.0969921386
  S        14.1990712794       22.7313991091        9.0976804699
  W        15.7764733642       24.3051901950       10.0086948219
  S        17.3546188073       25.8780178205        9.0971212333
  S        17.3534099984       22.7306297534        9.0978147493
  W        18.9315020214       24.3037882296       10.0085202383
  S        20.5096850274       25.8767041596        9.0973728276
  S        20.5083771654       22.7292304469        9.0978494060
  W        22.0862457444       24.3023862673       10.0088766045
  S        23.6644528290       25.8752499177        9.0978000669
  S        23.6631500640       22.7277908673        9.0982509568
  W        25.2410654802       24.3009656937       10.0091447914
  S        26.8189106155       25.8740194095        9.0978853485
  S        26.8181556396       22.7265752824        9.0983350459
  W        28.3958899831       24.3001184877       10.0090883051
  S        29.9731927138       25.8738831887        9.0980016533
  S        29.9736063071       22.7264303448        9.0982451722
  W        31.5507731193       24.3005456321       10.0090896182
  S        33.1276850924       25.8748700300        9.0981551534
  S        33.1289045430       22.7274079303        9.0981598797
  W         1.5794211266       24.3010180899       12.7417132795
  S         3.1562413370       25.8754872956       11.8308429855
  S         3.1575844912       22.7279736022       11.8307096096
  W         4.7342400781       24.3024393486       12.7417119557
  S         6.3110405806       25.8770899610       11.8309013127
  S         6.3123637851       22.7295570223       11.8304981643
  W         7.8889754884       24.3038635616       12.7416560020
  S         9.4662445277       25.8780897533       11.8308187789
  S         9.4667161089       22.7307672090       11.8301262082
  W        11.0438600057       24.3043804244       12.7416740237
  S        12.6209830997       25.8785636670       11.8303869450
  S        12.6210554197       22.7308947346       11.8296208716
  W        14.1988902453       24.3041845008       12.7393832529
  S        15.7765304241       25.8787906627       11.8307391283
  S        15.7757532237       22.7300225218       11.8294202509
  W        17.3533781313       24.3032803071       12.7392402384
  S        18.9318924457       25.8772136901       11.8303319542
  S        18.9310039470       22.7294973012       11.8298177439
  W        20.5084866315       24.3027473905       12.7417858952
  S        22.0865347225       25.8760898034       11.8307995098
  S        22.0857114313       22.7288025925       11.8306671923
  W        23.6634824231       24.3019164050       12.7419310033
  S        25.2414598570       25.8749702603       11.8307684145
  S        25.2403675778       22.7274764714       11.8310637271
  W        26.8182563481       24.3007127050       12.7418701160
  S        28.3958517990       25.8740596784       11.8306395404
  S        28.3955221461       22.7265715957       11.8309806541
  W        29.9730459990       24.3003163978       12.7417422038
  S        31.5501956929       25.8743202157       11.8307446210
  S        31.5508825112       22.7268339665       11.8308138354
  W         0.0017233611       24.3004998988       15.4743415799
  S         1.5786807318       25.8747255440       14.5634251403
  S         1.5796171523       22.7271927748       14.5633534093
  W         3.1564791561       24.3014855110       15.4743492280
  S         4.7332023293       25.8760607523       14.5635446173
  S         4.7344972516       22.7284794867       14.5632647209
  W         6.3111212906       24.3028694226       15.4743933069
  S         7.8880392236       25.8772655254       14.5637067006
  S         7.8886828607       22.7296700505       14.5630078766
  W         9.4655784091       24.3035027368       15.4743878323
  S        11.0426285068       25.8774143846       14.5640455578
  S        11.0423573578       22.7294722040       14.5627750744
  W        12.6181992284       24.3024731844       15.4761237311
  S        14.1965906327       25.8712351012       14.5647982774
  S        14.1974876353       22.7309812706       14.5628727102
  W        15.7758032434       24.3019611297       15.4777515548
  S        17.3559300372       25.8699596757       14.5645049172
  S        17.3536119089       22.7302137485       14.5628815313
  W        18.9335062899       24.3011674981       15.4760950598
  S        20.5093786386       25.8759731033       14.5640163777
  S        20.5092450626       22.7280102107       14.5629663691
  W        22.0861628177       24.3019257150       15.4745678818
  S        23.6639539208       25.8755286619       14.5638864303
  S        23.6631703431       22.7279755741       14.5634580502
  W        25.2407565772       24.3011331181       15.4746611648
  S        26.8185009498       25.8744915200       14.5636218118
  S        26.8177873028       22.7269672927       14.5635900850
  W        28.3954586489       24.3003357036       15.4744945151
  S        29.9727655449       25.8740948082       14.5634166200
  S        29.9729440062       22.7265828716       14.5634582671
  W        -1.5758499780       24.3001074267       18.2070472849
  S         0.0012333599       25.8741928801       17.2960546048
  S         0.0019152319       22.7266865408       17.2959912169
  W         1.5789427130       24.3008351973       18.2069352527
  S         3.1558106845       25.8752049898       17.2960602271
  S         3.1569254979       22.7276428538       17.2959865330
  W         4.7337083468       24.3020352498       18.2069384213
  S         6.3106779428       25.8764821813       17.2962544764
  S         6.3115384153       22.7288734884       17.2958677859
  W         7.8884422367       24.3029762137       18.2069916551
  S         9.4659309610       25.8769222007       17.2965567588
  S         9.4656508008       22.7292975692       17.2958153725
  W        11.0432256813       24.3026941336       18.2072464554
  S        12.6214651301       25.8762113496       17.2975372743
  S        12.6197935983       22.7278904470       17.2963085712
  W        14.1987579271       24.3008520406       18.2068595598
  S        15.7758438830       25.8747467626       17.2984908097
  S        15.7753777631       22.7256150790       17.2961649830
  W        17.3523953393       24.3003830250       18.2068078167
  S        18.9302494709       25.8751777198       17.2973638908
  S        18.9310119626       22.7268690776       17.2963718361
  W        20.5080038364       24.3012368171       18.2072863561
  S        22.0857664057       25.8751967732       17.2968532532
  S        22.0854798085       22.7276318392       17.2959085840
  W        23.6629631577       24.3008988921       18.2072219235
  S        25.2407954797       25.8745272499       17.2966665668
  S        25.2401761533       22.7269766557       17.2960459118
  W        26.8178313008       24.3001992039       18.2072051852
  S        28.3953157171       25.8739238393       17.2963147172
  S        28.3952427431       22.7264013965       17.2960981004
  W        -3.1534935215       24.2998440953       20.9397214844
  S        -1.5762554237       25.8737808913       20.0287490491
  S        -1.5757877180       22.7262784251       20.0287325802
  W         0.0013520640       24.3003442153       20.9395850216
  S         1.5782834576       25.8746158857       20.0285718285
  S         1.5792943209       22.7270887766       20.0286247728
  W         3.1561476425       24.3014477068       20.9394935258
  S         4.7331279671       25.8758019949       20.0286393641
  S         4.7340691544       22.7282311398       20.0285544681
  W         6.3109305645       24.3024715482       20.9395025610
  S         7.8883386632       25.8765666497       20.0288807829
  S         7.8883878262       22.7289509950       20.0284108889
  W         9.4656547072       24.3025310403       20.9396027973
  S        11.0436370513       25.8760434176       20.0292125858
  S        11.0425760287       22.7284725968       20.0285238307
  W        12.6205601599       24.3014402691       20.9394741863
  S        14.1985890284       25.8747294093       20.0286046397
  S        14.1975592589       22.7271058528       20.0286346908
  W        15.7753829861       24.3004480295       20.9394478405
  S        17.3528238147       25.8741871555       20.0286008385
  S        17.3527795901       22.7265890606       20.0285702366
  W        18.9301867454       24.3003340386       20.9395005930
  S        20.5076898923       25.8744102783       20.0292910426
  S        20.5078704222       22.7268828383       20.0285080949
  W        22.0851594585       24.3004509991       20.9397016800
  S        23.6628333458       25.8742469433       20.0291755809
  S        23.6625535119       22.7266865049       20.0286046187
  W        25.2400647606       24.3001177755       20.9397493016
  S        26.8177275603       25.8737382460       20.0290066698
  S        26.8174911729       22.7262191005       20.0287976815
  W        -4.7313041961       24.3002100694       23.6722581483
  S        -3.1537238498       25.8737373937       22.7612081077
  S        -3.1537331113       22.7262267424       22.7615932139
  W        -1.5763565500       24.3001669394       23.6722145388
  S         0.0008007305       25.8741723712       22.7611497388
  S         0.0015130700       22.7266634428       22.7613788142
  W         1.5784980644       24.3009346927       23.6721185239
  S         3.1554773808       25.8752441470       22.7611573160
  S         3.1564316781       22.7277073795       22.7611754953
  W         4.7332921622       24.3019794950       23.6720454743
  S         6.3106003188       25.8761353979       22.7613150641
  S         6.3109190856       22.7285686776       22.7609966820
  W         7.8880648582       24.3023171801       23.6721161226
  S         9.4658723045       25.8760416872       22.7615632909
  S         9.4652125467       22.7284734870       22.7609890149
  W        11.0429347956       24.3016080900       23.6720967943
  S        12.6209528066       25.8749948804       22.7613287304
  S        12.6198968769       22.7274266383       22.7610030177
  W        14.1977216133       24.3005246574       23.6721073110
  S        15.7753094057       25.8741175337       22.7611294784
  S        15.7749756287       22.7265362415       22.7611377502
  W        17.3524202292       24.3001922624       23.6721296041
  S        18.9297289841       25.8740773898       22.7611552327
  S        18.9300254797       22.7265299042       22.7612663042
  W        20.5072514432       24.3004861261       23.6721608098
  S        22.0848060136       25.8742379418       22.7613113971
  S        22.0848545208       22.7267193497       22.7614495478
  W        23.6622224108       24.3005256469       23.6722497444
  S        25.2399229160       25.8740037662       22.7612554648
  S        25.2396511193       22.7264832817       22.7615766756
  W        -6.3091958051       24.3012536093       26.4047803581
  S        -4.7314958177       25.8745010233       25.4934241930
  S        -4.7317816691       22.7269866106       25.4943860289
  W        -3.1542403650       24.3008995879       26.4047320676
  S        -1.5766727026       25.8743020151       25.4934840370
  S        -1.5766519429       22.7267944043       25.4942726532
  W         0.0007114850       24.3008742842       26.4047145588
  S         1.5779326317       25.8748058037       25.4936537168
  S         1.5785190124       22.7272999760       25.4939501348
  W         3.1555755803       24.3015005301       26.4046746383
  S         4.7328645250       25.8755999220       25.4938602446
  S         4.7332185930       22.7280800163       25.4935952761
  W         6.3103470180       24.3018712483       26.4046876696
  S         7.8880284119       25.8757201261       25.4941301470
  S         7.8876328064       22.7281935961       25.4934752630
  W         9.4651761323       24.3014227746       26.4047301636
  S        11.0430711530       25.8749929663       25.4941193217
  S        11.0422743503       22.7274820405       25.4935065713
  W        12.6199706015       24.3005728550       26.4048296334
  S        14.1976129534       25.8741504598       25.4939202438
  S        14.1972796562       22.7266562767       25.4938132887
  W        15.7747529117       24.3002594143       26.4048884400
  S        17.3519819269       25.8741254976       25.4937093171
  S        17.3524244513       22.7266276750       25.4940902362
  W        18.9295462887       24.3007964857       26.4048618099
  S        20.5067890545       25.8746199106       25.4935515976
  S        20.5072197173       22.7271169785       25.4942026242
  W        22.0843701513       24.3012881591       26.4048135843
  S        23.6619104272       25.8747788637       25.4934910256
  S        23.6618876305       22.7272669721       25.4943468181
  O        15.8034734016       28.9094392006       15.3482874925
  H        16.5713646252       28.3590802486       15.1112967671
  H        15.0468188829       28.3482829339       15.0998854311
